Version 4
SHEET 1 1656 680
WIRE 544 0 128 0
WIRE 704 0 544 0
WIRE 784 0 704 0
WIRE 1232 0 784 0
WIRE 784 32 784 0
WIRE 1232 48 1232 0
WIRE 1344 48 1232 48
WIRE 544 64 544 0
WIRE 1344 112 1344 48
WIRE 864 128 816 128
WIRE 1232 128 1232 48
WIRE 1232 128 1088 128
WIRE 128 160 128 0
WIRE 784 192 784 112
WIRE 864 192 784 192
WIRE 1136 192 1088 192
WIRE 544 208 544 144
WIRE 736 208 544 208
WIRE 544 224 544 208
WIRE 1136 224 1136 192
WIRE 1344 224 1344 192
WIRE 1344 224 1136 224
WIRE 736 256 736 208
WIRE 864 256 736 256
WIRE 1136 256 1136 224
WIRE 1136 256 1088 256
WIRE 1344 288 1344 224
WIRE 704 320 704 0
WIRE 864 320 704 320
WIRE 1184 320 1088 320
WIRE 544 352 544 304
WIRE 784 384 784 192
WIRE 128 400 128 240
WIRE 208 400 128 400
WIRE 1184 400 1184 384
WIRE 1344 400 1344 352
WIRE 208 432 208 400
WIRE 784 496 784 448
FLAG 208 432 0
FLAG 816 128 0
FLAG 1184 400 0
FLAG 1344 400 0
FLAG 544 352 0
FLAG 784 496 0
SYMBOL voltage 128 144 R0
WINDOW 3 40 90 Left 2
WINDOW 123 0 0 Left 0
WINDOW 39 0 0 Left 0
SYMATTR InstName V1
SYMATTR Value PULSE(0 12 0 1m 1m 5 5.1 3)
SYMBOL Misc\\NE555 976 224 R0
SYMATTR InstName U1
SYMBOL cap 1168 320 R0
SYMATTR InstName C1
SYMATTR Value 100n
SYMBOL cap 1328 288 R0
SYMATTR InstName C2
SYMATTR Value 10µ
SYMBOL res 1328 96 R0
SYMATTR InstName R1
SYMATTR Value 100k
SYMBOL res 528 48 R0
SYMATTR InstName R2
SYMATTR Value 10k
SYMBOL res 528 208 R0
SYMATTR InstName R3
SYMATTR Value 10k
SYMBOL cap 768 384 R0
SYMATTR InstName C3
SYMATTR Value 100n
SYMBOL res 768 16 R0
SYMATTR InstName R4
SYMATTR Value 100k
TEXT 94 456 Left 2 !.tran 20 startup
